#wb97xd/genecp opt=(modredundant,maxcyc=1000) scrf=(pcm,solvent=2-propanol)

step 2 (attempt 1) cycle 1

0 1
 H     -1.320540     -0.758899     -4.970190
 C     -0.837240     -0.675074     -3.987075
 C     -1.948374     -0.447266     -2.970230
 O     -2.603298      0.623429     -3.034952
 C     -2.651814     -1.794645     -2.815790
 H     -0.278948     -1.596295     -3.812611
 H     -0.144049      0.169092     -4.016406
 H     -0.875280     -0.296890     -1.627820
 H     -0.641540      0.770710      1.638350
 N     -2.220108      1.669658     -0.351572
 N     -2.417468     -0.877951      0.601297
 C     -3.383816      1.386169      0.514705
 H     -1.967475      2.652734     -0.261959
 H     -2.470828      1.510590     -1.337356
 C     -3.670263     -0.118777      0.390151
 H     -2.488463     -1.764107      0.101472
 H     -2.329174     -1.124694      1.583585
 C     -4.598214      2.251980      0.105746
 C     -2.961533      1.790972      1.953313
 C     -4.412790     -0.461845     -0.903132
 C     -4.664521     -0.549968      1.531469
 C     -2.116201     -2.838438     -2.055485
 C     -3.814917     -2.021341     -3.574381
 C     -3.905109     -4.306912     -2.774353
 C     -4.438635     -3.268852     -3.549860
 C     -2.743366     -4.089943     -2.030084
 H     -1.199025     -2.669540     -1.491338
 H     -2.319050     -4.896029     -1.437183
 H     -4.391355     -5.278382     -2.758838
 H     -5.338381     -3.438477     -4.137135
 H     -4.222568     -1.204885     -4.172994
 H     -4.412380      3.316144      0.282061
 H     -5.490461      1.979883      0.678438
 H     -4.843980      2.140408     -0.958840
 H     -2.880254      2.874584      2.061819
 H     -1.932665      1.360980      2.170792
 H     -3.656518      1.435378      2.713112
 H     -3.978522      0.055396     -1.787497
 H     -5.460510     -0.146234     -0.869590
 H     -4.419578     -1.537011     -1.109475
 H     -4.239268     -0.423692      2.531001
 H     -4.960084     -1.597113      1.417539
 H     -5.582102      0.046438      1.494847
Ru     -0.621926      0.268082      0.064391
 P      1.072050      1.718690     -0.347450
 P      0.811510     -1.371840      0.708960
 C      0.555260      3.145000     -1.415230
 C      1.979940      2.593790      1.006510
 C      2.492600      0.932210     -1.243470
 C     -0.115440     -2.482910      1.864090
 C      1.604080     -2.588820     -0.430670
 C      2.341000     -0.805900      1.599840
 C      3.335780      0.046270     -0.586290
 C      2.600450      1.091630     -2.650790
 C      3.336940     -0.125140      0.908120
 C      2.463120     -0.979260      3.003230
 C      4.284620     -0.723890     -1.342980
 C      3.513790      0.384210     -3.381940
 H      1.949370      1.793800     -3.160190
 C      4.456820      0.420480      1.626070
 C      3.509240     -0.445910      3.704350
 H      1.719030     -1.553470      3.541060
 C      4.374990     -0.546870     -2.750910
 C      5.130580     -1.694900     -0.738280
 H      3.585760      0.527630     -4.457220
 C      4.525460      0.280090      3.038970
 C      5.510150      1.125560      0.977780
 H      3.575460     -0.585650      4.780410
 C      5.302180     -1.316580     -3.501310
 C      6.012440     -2.432040     -1.488000
 H      5.063550     -1.869990      0.329910
 C      5.611740      0.850600      3.755000
 C      6.557520      1.651590      1.690230
 H      5.479180      1.263880     -0.096840
 C      6.106520     -2.240580     -2.885740
 H      5.354430     -1.163010     -4.576380
 H      6.639290     -3.175770     -1.004210
 C      6.610070      1.520760      3.097260
 H      5.636800      0.738140      4.836030
 H      7.346990      2.186980      1.170490
 H      6.810240     -2.830220     -3.466240
 H      7.439960      1.951420      3.650120
 C      0.827440      4.489480     -1.138250
 C     -0.257360      2.851020     -2.518510
 C      0.323890      5.501370     -1.955610
 H      1.426390      4.767710     -0.278600
 C     -0.752320      3.856820     -3.341450
 H     -0.530790      1.821440     -2.718150
 C     -0.460110      5.190610     -3.062850
 H      0.546410      6.538090     -1.718620
 H     -1.378640      3.594730     -4.189710
 H     -0.850510      5.981650     -3.696920
 C      3.141550      3.318280      0.708080
 C      1.548350      2.541330      2.332900
 C      3.851260      3.973070      1.708830
 H      3.505590      3.362790     -0.315480
 C      2.269240      3.179050      3.341330
 H      0.656770      1.973470      2.579400
 C      3.422400      3.895440      3.032720
 H      4.752400      4.525000      1.457650
 H      1.929620      3.109010      4.371110
 H      3.986640      4.389250      3.818870
 C     -0.549330     -3.746180      1.446820
 C     -0.643830     -1.966050      3.058660
 C     -1.463130     -4.477890      2.205650
 H     -0.191390     -4.168420      0.513840
 C     -1.541690     -2.702680      3.825360
 H     -0.384720     -0.960290      3.376050
 C     -1.957750     -3.963570      3.399450
 H     -1.789590     -5.452640      1.853940
 H     -1.931650     -2.280480      4.747240
 H     -2.670240     -4.533060      3.989180
 C      2.339840     -3.675190      0.060650
 C      1.544740     -2.383230     -1.806180
 C      2.973210     -4.551130     -0.814340
 H      2.418200     -3.840200      1.132790
 C      2.186270     -3.251970     -2.687240
 H      1.014910     -1.513770     -2.180640
 C      2.898220     -4.340140     -2.192220
 H      3.538000     -5.392230     -0.422060
 H      2.141470     -3.065920     -3.756790
 H      3.404480     -5.017370     -2.874350

B 8 44 F
B 8 3 F
B 3 4 F

H O N C P 0
6-31G*
****
Ru 0
SDD
****

Ru 0
SDD



